Info: SIMULATION PARAMETERS:
Info: TIMESTEP               2
Info: NUMBER OF STEPS        0
Info: STEPS PER CYCLE        20
Info: PERIODIC CELL BASIS 1  31.5146 0 0
Info: PERIODIC CELL BASIS 2  0 74.6764 0
Info: PERIODIC CELL BASIS 3  0 0 90.167
Info: PERIODIC CELL CENTER   -0.187979 -1.07554 9.95107
Info: WRAPPING WATERS AROUND PERIODIC BOUNDARIES ON OUTPUT.
Info: WRAPPING ALL CLUSTERS AROUND PERIODIC BOUNDARIES ON OUTPUT.
Info: FIRST LDB TIMESTEP     100
Info: LAST LDB TIMESTEP     -1
Info: HOM BACKGROUND SCALING 1
Info: PME BACKGROUND SCALING 1
Info: MIN ATOMS PER PATCH    40
Info: VELOCITY FILE          ../topology/Equilibration.restart.vel
Info: CENTER OF MASS MOVING INITIALLY? NO
Info: DIELECTRIC             1
Info: EXCLUDE                SCALED ONE-FOUR
Info: 1-4 ELECTROSTATICS SCALED BY 1
Info: MODIFIED 1-4 VDW PARAMETERS WILL BE USED
Info: DCD FILENAME           4.1/ace_asp_nme_prod0.dcd
Info: DCD FREQUENCY          5000
Info: DCD FIRST STEP         5000
Info: DCD FILE WILL CONTAIN UNIT CELL DATA
Info: NO EXTENDED SYSTEM TRAJECTORY OUTPUT
Info: NO VELOCITY DCD OUTPUT
Info: NO FORCE DCD OUTPUT
Info: OUTPUT FILENAME        4.1/ace_asp_nme_prod0
Info: BINARY OUTPUT FILES WILL BE USED
Info: NO RESTART FILE
Info: SWITCHING ACTIVE
Info: VDW FORCE SWITCHING ACTIVE
Info: SWITCHING ON           10
Info: SWITCHING OFF          12
Info: PAIRLIST DISTANCE      14
Info: PAIRLIST SHRINK RATE   0.01
Info: PAIRLIST GROW RATE     0.01
Info: PAIRLIST TRIGGER       0.3
Info: PAIRLISTS PER CYCLE    2
Info: PAIRLISTS ENABLED
Info: MARGIN                 0
Info: HYDROGEN GROUP CUTOFF  2.5
Info: PATCH DIMENSION        16.5
Info: ENERGY OUTPUT STEPS    5000
Info: CROSSTERM ENERGY INCLUDED IN DIHEDRAL
Info: TIMING OUTPUT STEPS    50000
Info: THERMODYNAMIC INTEGRATION (TI) ON
Info: TI LAMBDA VALUE     0
Info: TI INTRA-ALCHEMICAL NON-BONDED INTERACTIONS WILL BE DECOUPLED
Info: TI INTRA-ALCHEMICAL BONDED INTERACTIONS WILL BE DECOUPLED
Info: TI VDW SHIFTING COEFFICIENT 0
Info: TI ELEC. ACTIVE FOR ANNIHILATED PARTICLES BETWEEN LAMBDA = 0 AND LAMBDA = 1
Info: TI ELEC. ACTIVE FOR EXNIHILATED PARTICLES BETWEEN LAMBDA = 0 AND LAMBDA = 1
Info: TI VDW ACTIVE FOR ANNIHILATED PARTICLES BETWEEN LAMBDA = 0 AND LAMBDA = 1
Info: TI VDW ACTIVE FOR EXNIHILATED PARTICLES BETWEEN LAMBDA = 0 AND LAMBDA = 1
Info: TI BOND ACTIVE FOR ANNIHILATED PARTICLES BETWEEN LAMBDA = 0 AND LAMBDA = 1
Info: TI BOND ACTIVE FOR EXNIHILATED PARTICLES BETWEEN LAMBDA = 0 AND LAMBDA = 1
Info: LANGEVIN DYNAMICS ACTIVE
Info: LANGEVIN TEMPERATURE   298
Info: LANGEVIN USING BBK INTEGRATOR
Info: LANGEVIN DAMPING COEFFICIENT IS 1 INVERSE PS
Info: LANGEVIN DYNAMICS NOT APPLIED TO HYDROGENS
Info: PARTICLE MESH EWALD (PME) ACTIVE
Info: PME TOLERANCE               1e-06
Info: PME EWALD COEFFICIENT       0.257952
Info: PME INTERPOLATION ORDER     4
Info: PME GRID DIMENSIONS         32 80 96
Info: PME MAXIMUM GRID SPACING    1
Info: FULL ELECTROSTATIC EVALUATION FREQUENCY      1
Info: USING VERLET I (r-RESPA) MTS SCHEME.
Info: C1 SPLITTING OF LONG RANGE ELECTROSTATICS
Info: PLACING ATOMS IN PATCHES BY HYDROGEN GROUPS
Info: RIGID BONDS TO HYDROGEN : ALL
Info:         ERROR TOLERANCE : 1e-08
Info:          MAX ITERATIONS : 100
Info: RIGID WATER USING SETTLE ALGORITHM
Info: RANDOM NUMBER SEED     1645070135
Info: USE HYDROGEN BONDS?    NO
Info: COORDINATE PDB         ../topology/pre-ph_QwikMD.pdb
Info: STRUCTURE FILE         ../topology/pre-ph_QwikMD.psf
Info: PARAMETER file: CHARMM format!
Info: PARAMETERS             ../../toppar/par_all36_prot.prm
Info: PARAMETERS             ../../toppar/par_cph36_prot.prm
Info: PARAMETERS             ../../toppar/par_all36_solvent.prm
Info: PARAMETERS             ../../toppar/toppar_water_ions_namd.str
Info: PARAMETERS             ../../toppar/toppar_all36_carb_glycopeptide.str
Info: PARAMETERS             ../../toppar/par_all36_na.prm
Info: PARAMETERS             ../../toppar/par_all36_lipid.prm
Info: PARAMETERS             ../../toppar/par_all36_cgenff.prm
Info: PARAMETERS             ../../toppar/par_all36_carb.prm
Info: USING ARITHMETIC MEAN TO COMBINE L-J SIGMA PARAMETERS
Info: BINARY COORDINATES     ../topology/Equilibration.restart.coor
Info: SKIPPING rtf SECTION IN STREAM FILE
Info: SKIPPING rtf SECTION IN STREAM FILE
Info: SUMMARY OF PARAMETERS:
Info: 925 BONDS
Info: 2696 ANGLES
Info: 6608 DIHEDRAL
Info: 195 IMPROPER
Info: 6 CROSSTERM
Info: 366 VDW
Info: 6 VDW_PAIRS
Info: 0 NBTHOLE_PAIRS
Info: READING EXTRA BONDS FILE 4.1/namdcph.sw.extrabonds
Info: To read alchdata from file: coordinate pdb file (default)
Info: To read alchflag data from column: 5
Info: LONG-RANGE LJ: APPLYING ANALYTICAL CORRECTIONS TO ENERGY AND PRESSURE
Info: LONG-RANGE LJ: AVERAGE A0 AND B0 COEFFICIENTS 109136 AND 95.1494
Info: LONG-RANGE LJ: AVERAGE A1 AND B1 COEFFICIENTS 109136 AND 95.1494
Info: STRUCTURE SUMMARY:
Info: 22182 ATOMS
Info: 17371 BONDS
Info: 19852 ANGLES
Info: 21118 DIHEDRALS
Info: 280 IMPROPERS
Info: 54 CROSSTERMS
Info: 0 EXCLUSIONS
Info: 18976 RIGID BONDS
Info: ALCH: 0 ATOMS TO DISAPPEAR IN FINAL STATE
Info: ALCH: 0 ATOMS TO APPEAR IN FINAL STATE
Info: 47570 DEGREES OF FREEDOM
Info: 7938 HYDROGEN GROUPS
Info: 4 ATOMS IN LARGEST HYDROGEN GROUP
Info: 7938 MIGRATION GROUPS
Info: 4 ATOMS IN LARGEST MIGRATION GROUP
Info: TOTAL MASS = 132348 amu
Info: TOTAL CHARGE = 3.22983e-06 e
Info: MASS DENSITY = 1.0357 g/cm^3
Info: ATOM DENSITY = 0.104534 atoms/A^3
Info: ADDED 58335 IMPLICIT EXCLUSIONS
Info: NONBONDED TABLE R-SQUARED SPACING: 0.0625
Info: NONBONDED TABLE SIZE: 769 POINTS
Info: REMOVING COM VELOCITY -0.0110805 -0.0280778 -0.0288363
TCL: Setting parameter alchLambdaFreq to 1
Info: NONBONDED TABLE R-SQUARED SPACING: 0.0625
Info: NONBONDED TABLE SIZE: 769 POINTS
TCL: Setting parameter alch to off
Info: NONBONDED TABLE R-SQUARED SPACING: 0.0625
Info: NONBONDED TABLE SIZE: 769 POINTS
TCL: namdcph) initializing constant pH PSF...
TCL: WARNING! Building new atom AP1:918:HE1 with unknown mass.
TCL:          This may cause issues, for example, with mass repartitioning.
TCL: WARNING! Building new atom AP1:918:HE2 with unknown mass.
TCL:          This may cause issues, for example, with mass repartitioning.
TCL: WARNING! Building new atom AP1:936:HD1 with unknown mass.
TCL:          This may cause issues, for example, with mass repartitioning.
TCL: WARNING! Building new atom AP1:936:HD2 with unknown mass.
TCL:          This may cause issues, for example, with mass repartitioning.
TCL: WARNING! Building new atom AP1:950:HD1 with unknown mass.
TCL:          This may cause issues, for example, with mass repartitioning.
TCL: WARNING! Building new atom AP1:950:HD2 with unknown mass.
TCL:          This may cause issues, for example, with mass repartitioning.
TCL: cphpsfgen) creating new alchemical side chain for AP1:918:GLU
TCL: cphpsfgen) merging alchemical sidechains for AP1:918:GLU
TCL: cphpsfgen) creating new alchemical side chain for AP1:921:LYS
TCL: cphpsfgen) merging alchemical sidechains for AP1:921:LYS
TCL: cphpsfgen) creating new alchemical side chain for AP1:933:LYS
TCL: cphpsfgen) merging alchemical sidechains for AP1:933:LYS
TCL: cphpsfgen) creating new alchemical side chain for AP1:936:ASP
TCL: cphpsfgen) merging alchemical sidechains for AP1:936:ASP
TCL: cphpsfgen) creating new alchemical side chain for AP1:947:LYS
TCL: cphpsfgen) merging alchemical sidechains for AP1:947:LYS
TCL: cphpsfgen) creating new alchemical side chain for AP1:950:ASP
TCL: cphpsfgen) merging alchemical sidechains for AP1:950:ASP
TCL: cphpsfgen) creating new alchemical side chain for AP1:964:LYS
TCL: cphpsfgen) merging alchemical sidechains for AP1:964:LYS
TCL: namdcph) ***************************************
TCL: namdcph) CONSTANT pH MD ACTIVE
TCL: namdcph) SYSTEM pH 4.1
TCL: namdcph) CONSTANT pH CONFIGURATION FILE(S)
TCL: namdcph) ../../toppar/conf_cph36_prot.json
TCL: namdcph) NONEQUILIBRIUM SWITCH PARAMETERS:
TCL: namdcph) ALCHEMICAL FORCE CONSTANT 100.0 kcal/mol-A^2
TCL: namdcph) neMD/MC CRITERION TEMPERATURE 298.0
TCL: namdcph) TEMPORARY FILE INFORMATION:
TCL: namdcph) cpH TOPOLOGY FILE BASENAME 4.1/namdcph.md
TCL: namdcph) neMD/MC TRAJECTORY BASENAME 4.1/namdcph.sw
TCL: namdcph) ***************************************
TCL: namdcph) ***************************************
TCL: namdcph) TITRATABLE RESIDUE DEFINITIONS:
TCL: namdcph) HIS ASP GLU CYS LYS
TCL: namdcph) TITRATABLE SYSTEM SUMMARY:
TCL: namdcph) 7 RESIDUE(S)
TCL: namdcph) 18 PROTONATION SITE(S)
TCL: namdcph) ***************************************
TCL: namdcph) segid:resid:resname : state : pKai
TCL: namdcph) AP1:918:GLU         :     2 : 4.4
TCL: namdcph) AP1:921:LYS         :     P : 10.4
TCL: namdcph) AP1:933:LYS         :     P : 10.4
TCL: namdcph) AP1:936:ASP         :     D : 4.0
TCL: namdcph) AP1:947:LYS         :     P : 10.4
TCL: namdcph) AP1:950:ASP         :     2 : 4.0
TCL: namdcph) AP1:964:LYS         :     P : 10.4
TCL: namdcph) ***************************************
TCL: namdcph) *************************************************
TCL: namdcph) CONSTANT pH neMD/MC MOVES:
TCL: namdcph) MAX. ATTEMPTS PER CYCLE: 1
TCL: namdcph) ONE RESIDUE MOVES
TCL: namdcph) move label     : numsteps   weight
TCL: namdcph) AP1:918:GLU    :     7500     1.00
TCL: namdcph) AP1:921:LYS    :     7500     1.00
TCL: namdcph) AP1:933:LYS    :     7500     1.00
TCL: namdcph) AP1:936:ASP    :     7500     1.00
TCL: namdcph) AP1:947:LYS    :     7500     1.00
TCL: namdcph) AP1:950:ASP    :     7500     1.00
TCL: namdcph) AP1:964:LYS    :     7500     1.00
TCL: namdcph) *************************************************
TCL: namdcph) clearing extraBondsFile 4.1/namdcph.sw.extrabonds
TCL: Reloading molecular structure from file 4.1/namdcph.md.psf and pdb file 4.1/namdcph.md.pdb
Info: READING EXTRA BONDS FILE 4.1/namdcph.sw.extrabonds
Info: LONG-RANGE LJ: APPLYING ANALYTICAL CORRECTIONS TO ENERGY AND PRESSURE
Info: LONG-RANGE LJ: AVERAGE A AND B COEFFICIENTS 109130 AND 95.1421
Info: STRUCTURE SUMMARY:
Info: 22188 ATOMS
Info: 17377 BONDS
Info: 19858 ANGLES
Info: 21130 DIHEDRALS
Info: 280 IMPROPERS
Info: 54 CROSSTERMS
Info: 0 EXCLUSIONS
Info: 18982 RIGID BONDS
Info: 47582 DEGREES OF FREEDOM
Info: 7938 HYDROGEN GROUPS
Info: 4 ATOMS IN LARGEST HYDROGEN GROUP
Info: 7938 MIGRATION GROUPS
Info: 4 ATOMS IN LARGEST MIGRATION GROUP
Info: TOTAL MASS = 132354 amu
Info: TOTAL CHARGE = 2 e
Info: MASS DENSITY = 1.03575 g/cm^3
Info: ATOM DENSITY = 0.104563 atoms/A^3
Info: ADDED 58359 IMPLICIT EXCLUSIONS
Info: NONBONDED TABLE R-SQUARED SPACING: 0.0625
Info: NONBONDED TABLE SIZE: 769 POINTS
TCL: Reinitializing atom data from files with basename 4.1/namdcph.md
Info: REMOVING COM VELOCITY -0.0118512 -0.0314287 -0.0250344
TCL: Running for 500000 steps
ETITLE: TS BOND ANGLE DIHED IMPRP ELECT VDW BOUNDARY MISC KINETIC TOTAL TEMP POTENTIAL TOTAL3 TEMPAVG PRESSURE GPRESSURE VOLUME PRESSAVG GPRESSAVG
ENERGY: 0 929.0664 4625.5771 3367.6917 64.3949 -60828.0596 1727.4432 0.0000 0.0000 14128.4013 -35985.4850 298.8414 -50113.8863 -35897.9086 298.8414 -141.4914 -133.3711 212198.2827 -141.4914 -133.3711
ENERGY: 100000 916.2973 4640.5910 3362.9099 54.7387 -61282.4689 1683.2690 0.0000 0.0000 14007.1463 -36617.5167 296.2766 -50624.6630 -36529.3787 298.1547 -427.8214 -434.8848 212198.2827 -232.4972 -232.4980
ENERGY: 200000 930.2352 4647.9775 3323.4938 71.4727 -61080.2915 1430.6168 0.0000 0.0000 14065.9877 -36610.5079 297.5212 -50676.4956 -36520.7853 296.4657 -331.5232 -323.1474 212198.2827 -330.6213 -330.6136
ENERGY: 300000 914.4263 4659.6346 3375.4030 61.7891 -61130.8627 1626.8356 0.0000 0.0000 14201.6306 -36291.1434 300.3903 -50492.7740 -36201.4652 298.0995 -139.2309 -141.3189 212198.2827 -254.5091 -254.4850
ENERGY: 400000 862.0757 4735.9106 3373.4283 70.2991 -61103.0899 1528.4346 0.0000 0.0000 14115.2512 -36417.6903 298.5632 -50532.9416 -36333.3644 297.9864 -270.2431 -272.8929 212198.2827 -285.5795 -285.5955
ENERGY: 500000 901.1519 4715.0372 3329.9740 67.4508 -61289.6549 1609.2845 0.0000 0.0000 14080.4071 -36586.3494 297.8262 -50666.7565 -36504.2574 296.9214 -284.1273 -289.2442 212198.2827 -247.5020 -247.5201
TCL: namdcph) Proposal accepted, attemping a switch.
TCL: Setting parameter outputEnergies to 7500
TCL: Setting parameter dcdFreq to 0
TCL: Setting parameter firstTimestep to 0
TCL: Setting parameter alch to on
Info: NONBONDED TABLE R-SQUARED SPACING: 0.0625
Info: NONBONDED TABLE SIZE: 769 POINTS
TCL: Writing to files with basename 4.1/namdcph.md.
TCL: cphpsfgen) creating new alchemical side chain for AP1:950:ASP
TCL: Reloading molecular structure from file 4.1/namdcph.sw.psf and pdb file 4.1/namdcph.sw.pdb
Info: READING EXTRA BONDS FILE 4.1/namdcph.sw.extrabonds
Info: READ 8 EXTRA BONDS
Info: To read alchdata from file: coordinate pdb file (default)
Info: To read alchflag data from column: 5
Info: LONG-RANGE LJ: APPLYING ANALYTICAL CORRECTIONS TO ENERGY AND PRESSURE
Info: LONG-RANGE LJ: AVERAGE A0 AND B0 COEFFICIENTS 109130 AND 95.1421
Info: LONG-RANGE LJ: AVERAGE A1 AND B1 COEFFICIENTS 109133 AND 95.1458
Info: STRUCTURE SUMMARY:
Info: 22196 ATOMS
Info: 17393 BONDS
Info: 19872 ANGLES
Info: 21153 DIHEDRALS
Info: 281 IMPROPERS
Info: 54 CROSSTERMS
Info: 0 EXCLUSIONS
Info: 18986 RIGID BONDS
Info: ALCH: 8 ATOMS TO DISAPPEAR IN FINAL STATE
Info: ALCH: 8 ATOMS TO APPEAR IN FINAL STATE
Info: ALCH: 6 DIHEDRALS LINKING INITIAL AND FINAL ATOMS DELETED
Info: 47602 DEGREES OF FREEDOM
Info: 7942 HYDROGEN GROUPS
Info: 4 ATOMS IN LARGEST HYDROGEN GROUP
Info: 7942 MIGRATION GROUPS
Info: 4 ATOMS IN LARGEST MIGRATION GROUP
Info: TOTAL MASS = 132414 amu
Info: TOTAL CHARGE = 1 e
Info: MASS DENSITY = 1.03622 g/cm^3
Info: ATOM DENSITY = 0.1046 atoms/A^3
Info: ADDED 58404 IMPLICIT EXCLUSIONS
Info: NONBONDED TABLE R-SQUARED SPACING: 0.0625
Info: NONBONDED TABLE SIZE: 769 POINTS
TCL: Reinitializing atom data from files with basename 4.1/namdcph.sw
Info: REMOVING COM VELOCITY -0.0578125 0.0117507 0.00923808
TCL: Running for 7500 steps
ETITLE: TS BOND ANGLE DIHED IMPRP ELECT VDW BOUNDARY MISC KINETIC TOTAL TEMP POTENTIAL TOTAL3 TEMPAVG PRESSURE GPRESSURE VOLUME PRESSAVG GPRESSAVG
ENERGY: 0 905.9030 4715.0376 3329.9753 67.4509 -61289.6503 1609.2844 0.0000 0.0000 14083.6337 -36578.3655 297.7693 -50661.9992 -36496.3570 297.7693 -282.3802 -289.8627 212198.2827 -282.3802 -289.8627
ENERGY: 7500 915.5322 4738.5974 3334.9910 63.0525 -61150.2613 1548.3865 0.0000 0.0000 14106.9895 -36442.7123 298.2631 -50549.7018 -36355.0974 296.2748 -552.1049 -553.0309 212198.2827 -248.3346 -248.3712
TCL: Setting parameter outputEnergies to 5000
TCL: Setting parameter dcdFreq to 5000
TCL: namdcph) AP1:950:ASP:2:D WorkCorr    50.3000 CorrWork    16.2843
TCL: Setting parameter outputEnergies to 5000
TCL: Setting parameter dcdFreq to 5000
TCL: Setting parameter firstTimestep to 500000
TCL: namdcph) Switch rejected!
TCL: Setting parameter alch to off
Info: NONBONDED TABLE R-SQUARED SPACING: 0.0625
Info: NONBONDED TABLE SIZE: 769 POINTS
TCL: namdcph) clearing extraBondsFile 4.1/namdcph.sw.extrabonds
TCL: Reloading molecular structure from file 4.1/namdcph.md.psf and pdb file 4.1/namdcph.md.pdb
Info: READING EXTRA BONDS FILE 4.1/namdcph.sw.extrabonds
Info: LONG-RANGE LJ: APPLYING ANALYTICAL CORRECTIONS TO ENERGY AND PRESSURE
Info: LONG-RANGE LJ: AVERAGE A AND B COEFFICIENTS 109130 AND 95.1421
Info: STRUCTURE SUMMARY:
Info: 22188 ATOMS
Info: 17377 BONDS
Info: 19858 ANGLES
Info: 21130 DIHEDRALS
Info: 280 IMPROPERS
Info: 54 CROSSTERMS
Info: 0 EXCLUSIONS
Info: 18982 RIGID BONDS
Info: 47582 DEGREES OF FREEDOM
Info: 7938 HYDROGEN GROUPS
Info: 4 ATOMS IN LARGEST HYDROGEN GROUP
Info: 7938 MIGRATION GROUPS
Info: 4 ATOMS IN LARGEST MIGRATION GROUP
Info: TOTAL MASS = 132354 amu
Info: TOTAL CHARGE = 2 e
Info: MASS DENSITY = 1.03575 g/cm^3
Info: ATOM DENSITY = 0.104563 atoms/A^3
Info: ADDED 58359 IMPLICIT EXCLUSIONS
Info: NONBONDED TABLE R-SQUARED SPACING: 0.0625
Info: NONBONDED TABLE SIZE: 769 POINTS
TCL: Reinitializing atom data from files with basename 4.1/namdcph.md
Info: REMOVING COM VELOCITY -0.0591234 0.0120062 0.00822962
TCL: Running for 500000 steps
ETITLE: TS BOND ANGLE DIHED IMPRP ELECT VDW BOUNDARY MISC KINETIC TOTAL TEMP POTENTIAL TOTAL3 TEMPAVG PRESSURE GPRESSURE VOLUME PRESSAVG GPRESSAVG
ENERGY: 500000 901.1519 4715.0372 3329.9740 67.4508 -61289.6549 1609.2845 0.0000 0.0000 14079.4492 -36587.3073 297.8059 -50666.7565 -36504.9648 297.8059 -282.0022 -289.4942 212198.2827 -282.0022 -289.4942
ENERGY: 600000 831.9431 4605.9508 3293.3517 62.2390 -61107.4435 1653.7641 0.0000 0.0000 14147.7497 -36512.4453 299.2506 -50660.1950 -36427.3567 297.9332 -31.3137 -34.8300 212198.2827 -300.0807 -300.1813
ENERGY: 700000 878.2120 4749.4436 3316.3314 65.4043 -61348.6963 1744.8054 0.0000 0.0000 14105.4520 -36489.0476 298.3559 -50594.4996 -36406.3806 298.0597 -56.5960 -49.4866 212198.2827 -223.0474 -222.9820
ENERGY: 800000 892.7075 4603.5631 3276.9534 52.2973 -61427.7984 1642.6608 0.0000 0.0000 13963.2050 -36996.4114 295.3472 -50959.6164 -36911.7766 295.2284 -841.8995 -830.0244 212198.2827 -287.4835 -287.4839
ENERGY: 900000 918.4298 4642.5601 3290.1651 58.6249 -61308.7527 1579.5883 0.0000 0.0000 14038.3880 -36780.9966 296.9374 -50819.3846 -36691.7795 296.2771 -376.2310 -368.1735 212198.2827 -246.1799 -246.1784
ENERGY: 1000000 894.1136 4787.3475 3263.1414 58.5470 -61319.9520 1578.2455 0.0000 0.0000 14024.8034 -36713.7537 296.6501 -50738.5571 -36630.5345 297.1607 -241.0310 -256.8138 212198.2827 -282.8911 -282.8266
TCL: namdcph) Proposal rejected.
TCL: Running for 500000 steps without repeating first step
ETITLE: TS BOND ANGLE DIHED IMPRP ELECT VDW BOUNDARY MISC KINETIC TOTAL TEMP POTENTIAL TOTAL3 TEMPAVG PRESSURE GPRESSURE VOLUME PRESSAVG GPRESSAVG
ENERGY: 1005000 895.9363 4618.0415 3286.9803 61.8459 -60866.2850 1337.7485 0.0000 0.0000 14036.3810 -36629.3513 296.8950 -50665.7323 -36539.2426 296.9877 -647.3616 -647.2779 212198.2827 -219.0059 -219.0184
ENERGY: 1105000 893.6618 4765.0845 3308.2519 66.5354 -61309.8624 1465.9201 0.0000 0.0000 14108.0061 -36702.4025 298.4100 -50810.4086 -36613.5452 297.5066 -544.6649 -532.6057 212198.2827 -259.9093 -259.9641
ENERGY: 1205000 893.6162 4644.3698 3308.3001 58.5662 -60988.8992 1569.1689 0.0000 0.0000 13923.3936 -36591.4844 294.5051 -50514.8780 -36507.3491 297.5820 -431.2653 -437.3558 212198.2827 -274.7272 -274.7070
ENERGY: 1300000 906.4393 4725.3100 3287.2206 65.4343 -61041.9012 1497.3971 0.0000 0.0000 14000.4508 -36559.6490 296.1350 -50560.0998 -36474.8988 296.9658 -132.3145 -133.3871 212198.2827 -269.7056 -269.6891
ENERGY: 1400000 898.3128 4625.2313 3299.2355 68.0039 -61309.4981 1564.3832 0.0000 0.0000 13963.9120 -36890.4194 295.3621 -50854.3314 -36802.5139 296.8813 -533.1808 -527.0494 212198.2827 -325.0441 -324.9924
ENERGY: 1500000 912.8925 4712.4426 3316.8024 65.2349 -61303.9599 1678.0643 0.0000 0.0000 14009.4053 -36609.1179 296.3244 -50618.5232 -36526.4554 296.8546 -57.8987 -65.8914 212198.2827 -310.5037 -310.5042
TCL: namdcph) Proposal rejected.
TCL: Running for 500000 steps without repeating first step
ETITLE: TS BOND ANGLE DIHED IMPRP ELECT VDW BOUNDARY MISC KINETIC TOTAL TEMP POTENTIAL TOTAL3 TEMPAVG PRESSURE GPRESSURE VOLUME PRESSAVG GPRESSAVG
ENERGY: 1505000 878.8315 4673.1715 3303.0584 55.4264 -61057.9013 1505.3428 0.0000 0.0000 13997.1851 -36644.8855 296.0659 -50642.0706 -36551.5057 296.8216 -492.2113 -484.0237 212198.2827 -268.3555 -268.3184
ENERGY: 1605000 904.4235 4718.2630 3312.4873 57.7004 -61392.2865 1712.9146 0.0000 0.0000 14097.9151 -36588.5826 298.1965 -50686.4977 -36496.3528 297.3146 -136.4583 -126.4847 212198.2827 -282.9114 -282.9711
ENERGY: 1705000 879.8789 4712.8902 3298.1054 59.5003 -61407.7730 1723.7070 0.0000 0.0000 14152.9510 -36580.7401 299.3606 -50733.6911 -36495.2299 297.5260 -174.8286 -178.9513 212198.2827 -269.3574 -269.3678
ENERGY: 1800000 900.8699 4667.1322 3295.5952 64.7539 -61306.9498 1694.5378 0.0000 0.0000 14105.8004 -36578.2604 298.3633 -50684.0607 -36487.1459 298.1711 -211.4957 -201.3265 212198.2827 -242.5391 -242.4895
ENERGY: 1900000 888.2319 4668.4147 3305.3903 69.3470 -61432.3386 1707.6384 0.0000 0.0000 13993.0506 -36800.2657 295.9785 -50793.3163 -36714.0523 297.5685 179.0069 171.2468 212198.2827 -304.8985 -304.9623
ENERGY: 2000000 883.9962 4742.5841 3281.9423 66.4645 -61214.1058 1658.1853 0.0000 0.0000 13869.7357 -36711.1976 293.3701 -50580.9333 -36629.3555 297.1181 -93.6282 -94.3968 212198.2827 -266.5509 -266.5395
TCL: namdcph) Proposal rejected.
TCL: Running for 500000 steps without repeating first step
ETITLE: TS BOND ANGLE DIHED IMPRP ELECT VDW BOUNDARY MISC KINETIC TOTAL TEMP POTENTIAL TOTAL3 TEMPAVG PRESSURE GPRESSURE VOLUME PRESSAVG GPRESSAVG
ENERGY: 2005000 847.5995 4660.1739 3285.4594 63.6382 -61153.7152 1607.4019 0.0000 0.0000 14061.6455 -36627.7969 297.4294 -50689.4423 -36546.3931 296.1797 -252.1162 -251.8329 212198.2827 -281.1626 -281.0859
ENERGY: 2105000 909.0464 4586.9024 3271.6772 54.7075 -61298.4408 1592.6667 0.0000 0.0000 14040.0885 -36843.3521 296.9734 -50883.4406 -36757.2163 296.4015 -142.9104 -133.2343 212198.2827 -323.8464 -323.8509
ENERGY: 2205000 848.2787 4583.3023 3307.8477 57.2905 -61285.2395 1670.4527 0.0000 0.0000 14088.1006 -36729.9670 297.9889 -50818.0676 -36640.0770 297.5352 -94.6288 -97.3538 212198.2827 -318.2471 -318.3138
ENERGY: 2300000 870.0380 4648.7132 3319.6692 64.5200 -61457.7912 1687.0022 0.0000 0.0000 14009.4589 -36858.3897 296.3255 -50867.8486 -36771.8098 296.8289 -612.2609 -609.1590 212198.2827 -318.8824 -318.8849
ENERGY: 2400000 869.5653 4731.3386 3296.9635 76.0522 -61270.0950 1614.5918 0.0000 0.0000 14042.2322 -36639.3513 297.0187 -50681.5835 -36554.0231 297.0954 -454.5564 -450.5450 212198.2827 -344.6114 -344.6129
ENERGY: 2500000 926.6982 4666.1216 3311.7596 57.7916 -61319.4022 1693.8648 0.0000 0.0000 14014.3586 -36648.8078 296.4292 -50663.1664 -36562.4535 296.1106 -72.0411 -71.8757 212198.2827 -303.1882 -303.2489
TCL: namdcph) Proposal rejected.
TCL: namdcph) *************************************************
TCL: namdcph) CONSTANT pH MD STATISTICS:
TCL: namdcph) move label                : attempts accept. rate
TCL: namdcph) AP1:918:GLU               :        0         0.00
TCL: namdcph) AP1:921:LYS               :        0         0.00
TCL: namdcph) AP1:933:LYS               :        0         0.00
TCL: namdcph) AP1:936:ASP               :        0         0.00
TCL: namdcph) AP1:947:LYS               :        0         0.00
TCL: namdcph) AP1:950:ASP               :        1         0.00
TCL: namdcph) AP1:964:LYS               :        0         0.00
TCL: namdcph) *************************************************
TCL: Exiting due to exit command.
